%chk=P44_CAS.chk
%mem=400MW
%nprocshared=8
# casscf(14,12,nroot=4,stateaverage)/6-31g(d) geom=(check,connectivity) test
guess=(read,alter)  iop(5/7=512)

Title Card Required

0 1

 1 2 1.5 6 2.0 19 1.0
 2 3 2.0 7 1.0
 3 4 1.5 8 1.0
 4 5 2.0 11 1.0
 5 6 1.5 9 1.0
 6 10 1.0
 7
 8
 9
 10
 11 12 1.0 13 1.0 14 1.0
 12
 13
 14 15 1.0 16 1.0 17 1.0
 15
 16
 17 18 1.0 31 1.0 32 1.0
 18 28 1.0 33 1.0 34 1.0
 19 20 1.0 37 1.0 38 1.0
 20 21 1.0 35 1.0 36 1.0
 21 22 1.0 23 1.0 24 1.0
 22
 23
 24 25 1.0 26 1.0 27 1.0
 25
 26
 27 28 1.0 30 2.0
 28 29 2.0
 29
 30
 31
 32
 33
 34
 35
 36
 37
 38

55 62
54 61
52 60
70 72
71 97

0.25000000 0.250000 0.250000 0.250000

